EESchema Schematic File Version 2
LIBS:schematic_libspice
LIBS:pspice-cache
EELAYER 26 0
EELAYER END
$Descr A4 11693 8268
encoding utf-8
Sheet 1 1
Title ""
Date "Sun 22 Mar 2015"
Rev ""
Comp ""
Comment1 ""
Comment2 ""
Comment3 ""
Comment4 ""
$EndDescr
Text Label 4600 2800 0    60   ~ 0
VIN
Wire Notes Line
	1100 6650 1100 6200
Wire Notes Line
	1100 6650 3900 6650
Wire Notes Line
	3900 6650 3900 6200
Wire Notes Line
	3900 6200 1100 6200
Wire Wire Line
	4400 2800 5300 2800
Connection ~ 9200 1800
Wire Wire Line
	9200 1800 8700 1800
Wire Wire Line
	7800 1800 8200 1800
Wire Wire Line
	7800 1450 7800 1800
Wire Wire Line
	7800 1500 8250 1500
Wire Wire Line
	9200 1050 9200 2100
Wire Wire Line
	9400 2950 9550 2950
Connection ~ 7050 2450
Wire Wire Line
	7050 2600 7050 2450
Wire Wire Line
	5750 3150 5750 3200
Wire Wire Line
	3900 2800 3850 2800
Wire Wire Line
	6100 2450 7250 2450
Wire Wire Line
	6100 2450 6100 2300
Wire Wire Line
	5750 2450 5750 2300
Connection ~ 5100 2800
Connection ~ 6700 2800
Wire Wire Line
	6550 2800 6700 2800
Wire Wire Line
	6700 2300 6700 3300
Wire Wire Line
	5100 2300 5100 3300
Wire Wire Line
	7700 2100 9250 2100
Text Notes 1150 6500 0    60   ~ 0
.model Q2N2222 npn (bf=200)\n.ac dec 100 10 1Meg\n
Text Notes 1100 6200 0    60   ~ 0
Pspice directives using one multiline text:
$Comp
L R R2
U 1 1 3E9D53DA
P 8450 1800
F 0 "R2" V 8530 1800 50  0000 C CNN
F 1 "22K" V 8450 1800 50  0000 C CNN
F 2 "" H 8450 1800 60  0001 C CNN
F 3 "" H 8450 1800 60  0001 C CNN
	1    8450 1800
	0    1    1    0   
$EndComp
$Comp
L R R1
U 1 1 3E9D4D47
P 7800 1200
F 0 "R1" H 7700 1400 50  0000 C CNN
F 1 "10" V 7800 1200 50  0000 C CNN
F 2 "" H 7800 1200 60  0001 C CNN
F 3 "" H 7800 1200 60  0001 C CNN
	1    7800 1200
	1    0    0    -1  
$EndComp
$Comp
L INDUCTOR L1
U 1 1 3E9D4A5D
P 8500 1500
F 0 "L1" H 8500 1600 50  0000 C CNN
F 1 "100mH" H 8500 1400 50  0000 C CNN
F 2 "" H 8500 1500 60  0001 C CNN
F 3 "" H 8500 1500 60  0001 C CNN
	1    8500 1500
	1    0    0    -1  
$EndComp
$Comp
L 0 #GND3
U 1 1 3E9D3DE2
P 9550 3500
F 0 "#GND3" H 9550 3400 40  0001 C CNN
F 1 "0" H 9550 3430 40  0000 C CNN
F 2 "" H 9550 3500 60  0001 C CNN
F 3 "" H 9550 3500 60  0001 C CNN
	1    9550 3500
	1    0    0    -1  
$EndComp
$Comp
L CAP C3
U 1 1 3E9D3DD3
P 9550 3200
F 0 "C3" V 9650 3350 50  0000 C CNN
F 1 "10nF" V 9650 3050 50  0000 C CNN
F 2 "" H 9550 3200 60  0000 C CNN
F 3 "" H 9550 3200 60  0000 C CNN
	1    9550 3200
	1    0    0    -1  
$EndComp
$Comp
L 0 #GND2
U 1 1 3E9D1EFF
P 7050 3150
F 0 "#GND2" H 7050 3050 40  0001 C CNN
F 1 "0" H 7050 3080 40  0000 C CNN
F 2 "" H 7050 3150 60  0001 C CNN
F 3 "" H 7050 3150 60  0001 C CNN
	1    7050 3150
	1    0    0    -1  
$EndComp
$Comp
L C C2
U 1 1 3E9D1EF8
P 7050 2850
F 0 "C2" V 7150 3000 50  0000 C CNN
F 1 "220pF" V 7150 2700 50  0000 C CNN
F 2 "" H 7050 2850 60  0001 C CNN
F 3 "" H 7050 2850 60  0001 C CNN
	1    7050 2850
	1    0    0    -1  
$EndComp
$Comp
L 0 #GND4
U 1 1 32E8B852
P 7700 3550
F 0 "#GND4" H 7700 3450 40  0001 C CNN
F 1 "0" H 7700 3480 40  0000 C CNN
F 2 "" H 7700 3550 60  0001 C CNN
F 3 "" H 7700 3550 60  0001 C CNN
	1    7700 3550
	1    0    0    -1  
$EndComp
$Comp
L +12V #+12V1
U 1 1 32E8B84A
P 7800 900
F 0 "#+12V1" H 7800 1100 40  0001 C CNN
F 1 "+12V" H 7800 1050 40  0000 C CNN
F 2 "" H 7800 900 60  0001 C CNN
F 3 "" H 7800 900 60  0001 C CNN
	1    7800 900 
	1    0    0    -1  
$EndComp
$Comp
L R R8
U 1 1 32E8B80E
P 7700 3250
F 0 "R8" V 7780 3250 50  0000 C CNN
F 1 "2.2K" V 7700 3250 50  0000 C CNN
F 2 "" H 7700 3250 60  0001 C CNN
F 3 "" H 7700 3250 60  0001 C CNN
	1    7700 3250
	1    0    0    -1  
$EndComp
$Comp
L QNPN Q1
U 1 1 32E8B7FC
P 7550 2450
F 0 "Q1" H 7450 2750 50  0000 C CNN
F 1 "Q2N2222" H 7450 2650 50  0000 C CNN
F 2 "" H 7550 2450 60  0001 C CNN
F 3 "" H 7550 2450 60  0001 C CNN
	1    7550 2450
	1    0    0    -1  
$EndComp
$Comp
L 0 #GND8
U 1 1 32CFC469
P 3850 4250
F 0 "#GND8" H 3850 4150 40  0001 C CNN
F 1 "0" H 3850 4180 40  0000 C CNN
F 2 "" H 3850 4250 60  0001 C CNN
F 3 "" H 3850 4250 60  0001 C CNN
	1    3850 4250
	1    0    0    -1  
$EndComp
$Comp
L VSOURCE V2
U 1 1 32CFC454
P 3850 3500
F 0 "V2" H 3850 3400 60  0000 C CNN
F 1 "AC" H 3850 3600 60  0000 C CNN
F 2 "" H 3850 3500 60  0001 C CNN
F 3 "" H 3850 3500 60  0001 C CNN
F 4 "V" H 3850 3500 60  0001 C CNN "Spice_Primitive"
F 5 "dc 0 ac 1" H 3450 3100 60  0000 C CNN "Spice_Model"
F 6 "Y" H 3850 3500 60  0001 C CNN "Spice_Netlist_Enabled"
	1    3850 3500
	1    0    0    -1  
$EndComp
$Comp
L C C1
U 1 1 32CFC413
P 4150 2800
F 0 "C1" V 4250 2950 50  0000 C CNN
F 1 "1UF" V 4250 2650 50  0000 C CNN
F 2 "" H 4150 2800 60  0001 C CNN
F 3 "" H 4150 2800 60  0001 C CNN
	1    4150 2800
	0    1    1    0   
$EndComp
$Comp
L +12V #+12V2
U 1 1 32CFC34D
P 2850 1500
F 0 "#+12V2" H 2850 1700 40  0001 C CNN
F 1 "+12V" H 2850 1650 40  0000 C CNN
F 2 "" H 2850 1500 60  0001 C CNN
F 3 "" H 2850 1500 60  0001 C CNN
	1    2850 1500
	1    0    0    -1  
$EndComp
$Comp
L 0 #GND1
U 1 1 32CFC344
P 2850 2950
F 0 "#GND1" H 2850 2850 40  0001 C CNN
F 1 "0" H 2850 2880 40  0000 C CNN
F 2 "" H 2850 2950 60  0001 C CNN
F 3 "" H 2850 2950 60  0001 C CNN
	1    2850 2950
	1    0    0    -1  
$EndComp
$Comp
L VSOURCE V1
U 1 1 32CFC337
P 2850 2200
F 0 "V1" H 2850 2100 60  0000 C CNN
F 1 "DC 12" H 2850 2300 60  0000 C CNN
F 2 "" H 2850 2200 60  0001 C CNN
F 3 "" H 2850 2200 60  0001 C CNN
	1    2850 2200
	1    0    0    -1  
$EndComp
$Comp
L +12V #+12V6
U 1 1 32CFC303
P 6700 1750
F 0 "#+12V6" H 6700 1950 40  0001 C CNN
F 1 "+12V" H 6700 1900 40  0000 C CNN
F 2 "" H 6700 1750 60  0001 C CNN
F 3 "" H 6700 1750 60  0001 C CNN
	1    6700 1750
	1    0    0    -1  
$EndComp
$Comp
L +12V #+12V5
U 1 1 32CFC2FF
P 6100 1750
F 0 "#+12V5" H 6100 1950 40  0001 C CNN
F 1 "+12V" H 6100 1900 40  0000 C CNN
F 2 "" H 6100 1750 60  0001 C CNN
F 3 "" H 6100 1750 60  0001 C CNN
	1    6100 1750
	1    0    0    -1  
$EndComp
$Comp
L +12V #+12V4
U 1 1 32CFC2FD
P 5750 1750
F 0 "#+12V4" H 5750 1950 40  0001 C CNN
F 1 "+12V" H 5750 1900 40  0000 C CNN
F 2 "" H 5750 1750 60  0001 C CNN
F 3 "" H 5750 1750 60  0001 C CNN
	1    5750 1750
	1    0    0    -1  
$EndComp
$Comp
L +12V #+12V3
U 1 1 32CFC2F7
P 5100 1750
F 0 "#+12V3" H 5100 1950 40  0001 C CNN
F 1 "+12V" H 5100 1900 40  0000 C CNN
F 2 "" H 5100 1750 60  0001 C CNN
F 3 "" H 5100 1750 60  0001 C CNN
	1    5100 1750
	1    0    0    -1  
$EndComp
$Comp
L 0 #GND7
U 1 1 32CFC2B8
P 6700 3850
F 0 "#GND7" H 6700 3750 40  0001 C CNN
F 1 "0" H 6700 3780 40  0000 C CNN
F 2 "" H 6700 3850 60  0001 C CNN
F 3 "" H 6700 3850 60  0001 C CNN
	1    6700 3850
	1    0    0    -1  
$EndComp
$Comp
L 0 #GND5
U 1 1 32CFC2B5
P 5100 3850
F 0 "#GND5" H 5100 3750 40  0001 C CNN
F 1 "0" H 5100 3780 40  0000 C CNN
F 2 "" H 5100 3850 60  0001 C CNN
F 3 "" H 5100 3850 60  0001 C CNN
	1    5100 3850
	1    0    0    -1  
$EndComp
$Comp
L R R9
U 1 1 32CFC293
P 5100 3550
F 0 "R9" V 5180 3550 50  0000 C CNN
F 1 "10K" V 5100 3550 50  0000 C CNN
F 2 "" H 5100 3550 60  0001 C CNN
F 3 "" H 5100 3550 60  0001 C CNN
	1    5100 3550
	1    0    0    -1  
$EndComp
$Comp
L R R3
U 1 1 32CFC288
P 5100 2050
F 0 "R3" H 5000 2250 50  0000 C CNN
F 1 "22K" V 5100 2050 50  0000 C CNN
F 2 "" H 5100 2050 60  0001 C CNN
F 3 "" H 5100 2050 60  0001 C CNN
	1    5100 2050
	1    0    0    -1  
$EndComp
$Comp
L R R6
U 1 1 32CFC27F
P 6700 2050
F 0 "R6" H 6600 2250 50  0000 C CNN
F 1 "22K" V 6700 2050 50  0000 C CNN
F 2 "" H 6700 2050 60  0001 C CNN
F 3 "" H 6700 2050 60  0001 C CNN
	1    6700 2050
	1    0    0    -1  
$EndComp
$Comp
L R R11
U 1 1 32CFC277
P 6700 3550
F 0 "R11" V 6780 3550 50  0000 C CNN
F 1 "10K" V 6700 3550 50  0000 C CNN
F 2 "" H 6700 3550 60  0001 C CNN
F 3 "" H 6700 3550 60  0001 C CNN
	1    6700 3550
	1    0    0    -1  
$EndComp
$Comp
L 0 #GND6
U 1 1 32CFC26C
P 5950 3850
F 0 "#GND6" H 5950 3750 40  0001 C CNN
F 1 "0" H 5950 3780 40  0000 C CNN
F 2 "" H 5950 3850 60  0001 C CNN
F 3 "" H 5950 3850 60  0001 C CNN
	1    5950 3850
	1    0    0    -1  
$EndComp
$Comp
L R R10
U 1 1 32CFC25A
P 5950 3550
F 0 "R10" V 6030 3550 50  0000 C CNN
F 1 "470" V 5950 3550 50  0000 C CNN
F 2 "" H 5950 3550 60  0001 C CNN
F 3 "" H 5950 3550 60  0001 C CNN
	1    5950 3550
	1    0    0    -1  
$EndComp
$Comp
L R R5
U 1 1 32CFC254
P 6100 2050
F 0 "R5" H 6000 2250 50  0000 C CNN
F 1 "1K" V 6100 2050 50  0000 C CNN
F 2 "" H 6100 2050 60  0001 C CNN
F 3 "" H 6100 2050 60  0001 C CNN
	1    6100 2050
	1    0    0    -1  
$EndComp
$Comp
L R R4
U 1 1 32CFC24C
P 5750 2050
F 0 "R4" H 5650 2250 50  0000 C CNN
F 1 "1K" V 5750 2050 50  0000 C CNN
F 2 "" H 5750 2050 60  0001 C CNN
F 3 "" H 5750 2050 60  0001 C CNN
	1    5750 2050
	1    0    0    -1  
$EndComp
$Comp
L QNPN Q3
U 1 1 32CFC230
P 6250 2800
F 0 "Q3" H 6150 3100 50  0000 C CNN
F 1 "Q2N2222" H 6150 3000 50  0000 C CNN
F 2 "" H 6250 2800 60  0001 C CNN
F 3 "" H 6250 2800 60  0001 C CNN
	1    6250 2800
	-1   0    0    -1  
$EndComp
$Comp
L QNPN Q2
U 1 1 32CFC227
P 5600 2800
F 0 "Q2" H 5500 3100 50  0000 C CNN
F 1 "Q2N2222" H 5500 3000 50  0000 C CNN
F 2 "" H 5600 2800 60  0001 C CNN
F 3 "" H 5600 2800 60  0001 C CNN
	1    5600 2800
	1    0    0    -1  
$EndComp
Wire Wire Line
	9200 1500 8750 1500
Connection ~ 7800 1500
Wire Wire Line
	2850 2900 2850 2950
Wire Wire Line
	3850 4200 3850 4250
Wire Wire Line
	5100 3800 5100 3850
Wire Wire Line
	5950 3800 5950 3850
Wire Wire Line
	6100 3200 6100 3150
Wire Wire Line
	5950 3200 5950 3300
Connection ~ 5950 3200
Wire Wire Line
	6700 3850 6700 3800
Wire Wire Line
	7050 3150 7050 3100
Wire Wire Line
	7700 3550 7700 3500
Wire Wire Line
	9550 3500 9550 3450
Wire Wire Line
	7700 2800 7700 3000
Wire Wire Line
	8500 2900 8750 2900
Connection ~ 7700 2900
Wire Wire Line
	6700 1750 6700 1800
Wire Wire Line
	6100 1750 6100 1800
Wire Wire Line
	5750 1750 5750 1800
Wire Wire Line
	5100 1750 5100 1800
Wire Wire Line
	7800 900  7800 950 
Wire Wire Line
	5750 3200 6100 3200
Text GLabel 9250 2100 2    60   Output ~ 0
VOUT
Connection ~ 9200 2100
Text Label 6250 2450 0    60   ~ 0
VBASE
$Comp
L R R7
U 1 1 592C1EB3
P 9100 3050
F 0 "R7" V 9180 3050 50  0000 C CNN
F 1 "22K" V 9100 3050 50  0000 C CNN
F 2 "" H 9100 3050 60  0001 C CNN
F 3 "" H 9100 3050 60  0001 C CNN
	1    9100 3050
	0    1    1    0   
$EndComp
$Comp
L INDUCTOR L2
U 1 1 592C1EB9
P 9100 2800
F 0 "L2" H 9100 2900 50  0000 C CNN
F 1 "100mH" H 9100 2700 50  0000 C CNN
F 2 "" H 9100 2800 60  0001 C CNN
F 3 "" H 9100 2800 60  0001 C CNN
	1    9100 2800
	1    0    0    -1  
$EndComp
Wire Wire Line
	8850 2800 8750 2800
Wire Wire Line
	8750 2800 8750 3050
Wire Wire Line
	8750 3050 8850 3050
Connection ~ 8750 2900
Wire Wire Line
	9350 2800 9400 2800
Wire Wire Line
	9400 2800 9400 3050
Wire Wire Line
	9400 3050 9350 3050
Connection ~ 9400 2950
$Comp
L CAP C4
U 1 1 592C267C
P 8500 1050
F 0 "C4" V 8600 1200 50  0000 C CNN
F 1 "10nF" V 8600 900 50  0000 C CNN
F 2 "" H 8500 1050 60  0000 C CNN
F 3 "" H 8500 1050 60  0000 C CNN
	1    8500 1050
	0    1    1    0   
$EndComp
Wire Wire Line
	8750 1050 9200 1050
Connection ~ 9200 1500
Wire Wire Line
	8250 1050 8050 1050
Wire Wire Line
	8050 1050 8050 1500
Connection ~ 8050 1500
$Comp
L PWR_FLAG #FLG2
U 1 1 592C3EA3
P 3650 4250
F 0 "#FLG2" H 3650 4325 50  0001 C CNN
F 1 "PWR_FLAG" H 3650 4400 50  0000 C CNN
F 2 "" H 3650 4250 50  0001 C CNN
F 3 "" H 3650 4250 50  0001 C CNN
F 4 "N" H 3650 4250 60  0001 C CNN "Spice_Netlist_Enabled"
	1    3650 4250
	-1   0    0    1   
$EndComp
Wire Wire Line
	3850 4200 3650 4200
Wire Wire Line
	3650 4200 3650 4250
$Comp
L PWR_FLAG #FLG1
U 1 1 592C404D
P 7500 850
F 0 "#FLG1" H 7500 925 50  0001 C CNN
F 1 "PWR_FLAG" H 7500 1000 50  0000 C CNN
F 2 "" H 7500 850 50  0001 C CNN
F 3 "" H 7500 850 50  0001 C CNN
F 4 "N" H 7500 850 60  0001 C CNN "Spice_Netlist_Enabled"
	1    7500 850 
	1    0    0    -1  
$EndComp
Wire Wire Line
	7800 900  7500 900 
Wire Wire Line
	7500 900  7500 850 
$Comp
L R R12
U 1 1 592C449D
P 8250 2900
F 0 "R12" V 8330 2900 50  0000 C CNN
F 1 "100" V 8250 2900 50  0000 C CNN
F 2 "" H 8250 2900 50  0001 C CNN
F 3 "" H 8250 2900 50  0001 C CNN
	1    8250 2900
	0    1    1    0   
$EndComp
Wire Wire Line
	8000 2900 7700 2900
$EndSCHEMATC
