EESchema Schematic File Version 4
LIBS:new_spice_models-cache
EELAYER 30 0
EELAYER END
$Descr A4 11693 8268
encoding utf-8
Sheet 1 1
Title ""
Date ""
Rev ""
Comp ""
Comment1 ""
Comment2 ""
Comment3 ""
Comment4 ""
$EndDescr
$Comp
L power:GND #PWR01
U 1 1 5BDA09BD
P 1000 3200
F 0 "#PWR01" H 1000 2950 50  0001 C CNN
F 1 "GND" H 1005 3027 50  0000 C CNN
F 2 "" H 1000 3200 50  0001 C CNN
F 3 "" H 1000 3200 50  0001 C CNN
	1    1000 3200
	1    0    0    -1  
$EndComp
Wire Wire Line
	5550 2600 5550 3150
Wire Wire Line
	6250 2850 6250 3150
Wire Wire Line
	6250 3150 5900 3150
Wire Wire Line
	3150 1850 3150 3150
Wire Wire Line
	4000 2100 4000 3150
Wire Wire Line
	4000 3150 3650 3150
Wire Wire Line
	4750 2350 4750 3150
Connection ~ 4750 3150
Wire Wire Line
	1000 700  1000 600 
Wire Wire Line
	1700 950  1700 600 
Wire Wire Line
	6250 2450 6250 600 
Wire Wire Line
	3150 1450 3150 600 
Wire Wire Line
	4000 1700 4000 600 
Wire Wire Line
	4750 1950 4750 600 
Wire Wire Line
	5550 2200 5550 600 
Text Label 5600 600  0    50   ~ 0
vsin
Text Label 4800 600  0    50   ~ 0
vsffm
Text Label 4050 600  0    50   ~ 0
vpwl
Text Label 3200 600  0    50   ~ 0
vpulse
Text Label 6300 600  0    50   ~ 0
vtrnoise
Text Label 2450 600  0    50   ~ 0
vexp
Text Label 1750 600  0    50   ~ 0
vdc
Text Label 1050 600  0    50   ~ 0
vam
$Comp
L Device:R R7
U 1 1 5BDA56DF
P 5900 800
F 0 "R7" H 5970 846 50  0000 L CNN
F 1 "10k" H 5970 755 50  0000 L CNN
F 2 "" V 5830 800 50  0001 C CNN
F 3 "~" H 5900 800 50  0001 C CNN
	1    5900 800 
	1    0    0    -1  
$EndComp
Wire Wire Line
	5900 650  5900 600 
Wire Wire Line
	5550 600  5900 600 
Wire Wire Line
	5900 950  5900 3150
Wire Wire Line
	5900 3150 5550 3150
Text Notes 800  6700 0    50   ~ 0
.tran 1n 300n
$Comp
L Device:R R1
U 1 1 5BDA3C13
P 1350 800
F 0 "R1" H 1420 846 50  0000 L CNN
F 1 "10k" H 1420 755 50  0000 L CNN
F 2 "" V 1280 800 50  0001 C CNN
F 3 "~" H 1350 800 50  0001 C CNN
	1    1350 800 
	1    0    0    -1  
$EndComp
Wire Wire Line
	1000 1100 1000 3150
$Comp
L Device:R R2
U 1 1 5BDA54F9
P 2050 800
F 0 "R2" H 2120 846 50  0000 L CNN
F 1 "10k" H 2120 755 50  0000 L CNN
F 2 "" V 1980 800 50  0001 C CNN
F 3 "~" H 2050 800 50  0001 C CNN
	1    2050 800 
	1    0    0    -1  
$EndComp
$Comp
L Device:R R3
U 1 1 5BDA5E69
P 2800 800
F 0 "R3" H 2870 846 50  0000 L CNN
F 1 "10k" H 2870 755 50  0000 L CNN
F 2 "" V 2730 800 50  0001 C CNN
F 3 "~" H 2800 800 50  0001 C CNN
	1    2800 800 
	1    0    0    -1  
$EndComp
$Comp
L Device:R R8
U 1 1 5BDA631A
P 6800 800
F 0 "R8" H 6870 846 50  0000 L CNN
F 1 "10k" H 6870 755 50  0000 L CNN
F 2 "" V 6730 800 50  0001 C CNN
F 3 "~" H 6800 800 50  0001 C CNN
	1    6800 800 
	1    0    0    -1  
$EndComp
$Comp
L Device:R R4
U 1 1 5BDA6C25
P 3650 800
F 0 "R4" H 3720 846 50  0000 L CNN
F 1 "10k" H 3720 755 50  0000 L CNN
F 2 "" V 3580 800 50  0001 C CNN
F 3 "~" H 3650 800 50  0001 C CNN
	1    3650 800 
	1    0    0    -1  
$EndComp
$Comp
L Device:R R5
U 1 1 5BDA74FC
P 4400 800
F 0 "R5" H 4470 846 50  0000 L CNN
F 1 "10k" H 4470 755 50  0000 L CNN
F 2 "" V 4330 800 50  0001 C CNN
F 3 "~" H 4400 800 50  0001 C CNN
	1    4400 800 
	1    0    0    -1  
$EndComp
$Comp
L Device:R R6
U 1 1 5BDA7E91
P 5200 800
F 0 "R6" H 5270 846 50  0000 L CNN
F 1 "10k" H 5270 755 50  0000 L CNN
F 2 "" V 5130 800 50  0001 C CNN
F 3 "~" H 5200 800 50  0001 C CNN
	1    5200 800 
	1    0    0    -1  
$EndComp
Wire Wire Line
	4750 3150 5200 3150
Connection ~ 5550 3150
Wire Wire Line
	5200 950  5200 3150
Connection ~ 5200 3150
Wire Wire Line
	5200 3150 5550 3150
Wire Wire Line
	5200 650  5200 600 
Wire Wire Line
	4750 600  5200 600 
Wire Wire Line
	4400 650  4400 600 
Wire Wire Line
	4000 600  4400 600 
Wire Wire Line
	4000 3150 4400 3150
Connection ~ 4000 3150
Wire Wire Line
	4400 950  4400 3150
Connection ~ 4400 3150
Wire Wire Line
	4400 3150 4750 3150
Wire Wire Line
	3650 950  3650 3150
Connection ~ 3650 3150
Wire Wire Line
	3150 600  3650 600 
Wire Wire Line
	3650 600  3650 650 
Wire Wire Line
	3150 3150 3650 3150
Wire Wire Line
	6800 650  6800 600 
Wire Wire Line
	6800 950  6800 3150
Connection ~ 6800 3150
Wire Wire Line
	2400 600  2800 600 
Wire Wire Line
	2800 950  2800 3150
Wire Wire Line
	2800 600  2800 650 
Wire Wire Line
	2400 1200 2400 600 
Wire Wire Line
	2050 600  2050 650 
Wire Wire Line
	2050 950  2050 3150
Wire Wire Line
	2400 1600 2400 3150
Wire Wire Line
	2400 3150 2050 3150
Wire Wire Line
	2400 3150 2800 3150
Connection ~ 2400 3150
Wire Wire Line
	1700 1350 1700 3150
Wire Wire Line
	1350 950  1350 3150
Connection ~ 1350 3150
Wire Wire Line
	1350 3150 1700 3150
Wire Wire Line
	1350 650  1350 600 
Wire Wire Line
	1000 600  1350 600 
Wire Wire Line
	1000 3150 1350 3150
Connection ~ 1000 3150
Wire Wire Line
	1000 3150 1000 3200
Wire Wire Line
	2050 600  1700 600 
Wire Wire Line
	1700 3150 2050 3150
Connection ~ 1700 3150
Connection ~ 2050 3150
Wire Wire Line
	6250 600  6800 600 
Connection ~ 6250 3150
Wire Wire Line
	6250 3150 6800 3150
Connection ~ 5900 3150
Wire Wire Line
	3150 3150 2800 3150
Connection ~ 3150 3150
Connection ~ 2800 3150
Wire Wire Line
	7150 2700 7150 600 
Text Label 7200 600  0    50   ~ 0
vtrrandom
$Comp
L Device:R R9
U 1 1 5BDC2DDF
P 7800 800
F 0 "R9" H 7870 846 50  0000 L CNN
F 1 "10k" H 7870 755 50  0000 L CNN
F 2 "" V 7730 800 50  0001 C CNN
F 3 "~" H 7800 800 50  0001 C CNN
	1    7800 800 
	1    0    0    -1  
$EndComp
Wire Wire Line
	7800 650  7800 600 
Wire Wire Line
	7800 950  7800 3150
Wire Wire Line
	7150 600  7800 600 
Text Notes 3500 3400 0    150  ~ 30
Voltage sources
$Comp
L power:GND #PWR02
U 1 1 5BDA717D
P 1050 6250
F 0 "#PWR02" H 1050 6000 50  0001 C CNN
F 1 "GND" H 1055 6077 50  0000 C CNN
F 2 "" H 1050 6250 50  0001 C CNN
F 3 "" H 1050 6250 50  0001 C CNN
	1    1050 6250
	1    0    0    -1  
$EndComp
Wire Wire Line
	5600 5650 5600 6200
Wire Wire Line
	6300 5900 6300 6200
Wire Wire Line
	6300 6200 5950 6200
Wire Wire Line
	3200 4900 3200 6200
Wire Wire Line
	7200 6200 6850 6200
Wire Wire Line
	4050 5150 4050 6200
Wire Wire Line
	4050 6200 3700 6200
Wire Wire Line
	4800 5400 4800 6200
Connection ~ 4800 6200
Wire Wire Line
	1050 3750 1050 3650
Wire Wire Line
	1750 4000 1750 3650
Wire Wire Line
	6300 5500 6300 3650
Wire Wire Line
	3200 4500 3200 3650
Wire Wire Line
	4050 4750 4050 3650
Wire Wire Line
	4800 5000 4800 3650
Wire Wire Line
	5600 5250 5600 3650
Text Label 5650 3650 0    50   ~ 0
isin
Text Label 4850 3650 0    50   ~ 0
isffm
Text Label 4100 3650 0    50   ~ 0
ipwl
Text Label 3250 3650 0    50   ~ 0
ipulse
Text Label 6350 3650 0    50   ~ 0
itrnoise
Text Label 2500 3650 0    50   ~ 0
iexp
Text Label 1800 3650 0    50   ~ 0
idc
Text Label 1100 3650 0    50   ~ 0
iam
$Comp
L Device:R R16
U 1 1 5BDA719B
P 5950 3850
F 0 "R16" H 6020 3896 50  0000 L CNN
F 1 "10k" H 6020 3805 50  0000 L CNN
F 2 "" V 5880 3850 50  0001 C CNN
F 3 "~" H 5950 3850 50  0001 C CNN
	1    5950 3850
	1    0    0    -1  
$EndComp
Wire Wire Line
	5950 3700 5950 3650
Wire Wire Line
	5600 3650 5950 3650
Wire Wire Line
	5950 4000 5950 6200
Wire Wire Line
	5950 6200 5600 6200
$Comp
L Device:R R10
U 1 1 5BDA71A5
P 1400 3850
F 0 "R10" H 1470 3896 50  0000 L CNN
F 1 "10k" H 1470 3805 50  0000 L CNN
F 2 "" V 1330 3850 50  0001 C CNN
F 3 "~" H 1400 3850 50  0001 C CNN
	1    1400 3850
	1    0    0    -1  
$EndComp
Wire Wire Line
	1050 4150 1050 6200
$Comp
L Device:R R11
U 1 1 5BDA71AC
P 2100 3850
F 0 "R11" H 2170 3896 50  0000 L CNN
F 1 "10k" H 2170 3805 50  0000 L CNN
F 2 "" V 2030 3850 50  0001 C CNN
F 3 "~" H 2100 3850 50  0001 C CNN
	1    2100 3850
	1    0    0    -1  
$EndComp
$Comp
L Device:R R12
U 1 1 5BDA71B2
P 2850 3850
F 0 "R12" H 2920 3896 50  0000 L CNN
F 1 "10k" H 2920 3805 50  0000 L CNN
F 2 "" V 2780 3850 50  0001 C CNN
F 3 "~" H 2850 3850 50  0001 C CNN
	1    2850 3850
	1    0    0    -1  
$EndComp
$Comp
L Device:R R17
U 1 1 5BDA71B8
P 6850 3850
F 0 "R17" H 6920 3896 50  0000 L CNN
F 1 "10k" H 6920 3805 50  0000 L CNN
F 2 "" V 6780 3850 50  0001 C CNN
F 3 "~" H 6850 3850 50  0001 C CNN
	1    6850 3850
	1    0    0    -1  
$EndComp
$Comp
L Device:R R13
U 1 1 5BDA71BE
P 3700 3850
F 0 "R13" H 3770 3896 50  0000 L CNN
F 1 "10k" H 3770 3805 50  0000 L CNN
F 2 "" V 3630 3850 50  0001 C CNN
F 3 "~" H 3700 3850 50  0001 C CNN
	1    3700 3850
	1    0    0    -1  
$EndComp
$Comp
L Device:R R14
U 1 1 5BDA71C4
P 4450 3850
F 0 "R14" H 4520 3896 50  0000 L CNN
F 1 "10k" H 4520 3805 50  0000 L CNN
F 2 "" V 4380 3850 50  0001 C CNN
F 3 "~" H 4450 3850 50  0001 C CNN
	1    4450 3850
	1    0    0    -1  
$EndComp
$Comp
L Device:R R15
U 1 1 5BDA71CA
P 5250 3850
F 0 "R15" H 5320 3896 50  0000 L CNN
F 1 "10k" H 5320 3805 50  0000 L CNN
F 2 "" V 5180 3850 50  0001 C CNN
F 3 "~" H 5250 3850 50  0001 C CNN
	1    5250 3850
	1    0    0    -1  
$EndComp
Wire Wire Line
	4800 6200 5250 6200
Connection ~ 5600 6200
Wire Wire Line
	5250 4000 5250 6200
Connection ~ 5250 6200
Wire Wire Line
	5250 6200 5600 6200
Wire Wire Line
	5250 3700 5250 3650
Wire Wire Line
	4800 3650 5250 3650
Wire Wire Line
	4450 3700 4450 3650
Wire Wire Line
	4050 3650 4450 3650
Wire Wire Line
	4050 6200 4450 6200
Connection ~ 4050 6200
Wire Wire Line
	4450 4000 4450 6200
Connection ~ 4450 6200
Wire Wire Line
	4450 6200 4800 6200
Wire Wire Line
	3700 4000 3700 6200
Connection ~ 3700 6200
Wire Wire Line
	3200 3650 3700 3650
Wire Wire Line
	3700 3650 3700 3700
Wire Wire Line
	3200 6200 3700 6200
Wire Wire Line
	6850 3700 6850 3650
Wire Wire Line
	6850 4000 6850 6200
Connection ~ 6850 6200
Wire Wire Line
	2450 3650 2850 3650
Wire Wire Line
	2850 4000 2850 6200
Wire Wire Line
	2850 3650 2850 3700
Wire Wire Line
	2450 4250 2450 3650
Wire Wire Line
	2100 3650 2100 3700
Wire Wire Line
	2100 4000 2100 6200
Wire Wire Line
	2450 4650 2450 6200
Wire Wire Line
	2450 6200 2100 6200
Wire Wire Line
	2450 6200 2850 6200
Connection ~ 2450 6200
Wire Wire Line
	1750 4400 1750 6200
Wire Wire Line
	1400 4000 1400 6200
Connection ~ 1400 6200
Wire Wire Line
	1400 6200 1750 6200
Wire Wire Line
	1400 3700 1400 3650
Wire Wire Line
	1050 3650 1400 3650
Wire Wire Line
	1050 6200 1400 6200
Connection ~ 1050 6200
Wire Wire Line
	1050 6200 1050 6250
Wire Wire Line
	2100 3650 1750 3650
Wire Wire Line
	1750 6200 2100 6200
Connection ~ 1750 6200
Connection ~ 2100 6200
Wire Wire Line
	6300 3650 6850 3650
Connection ~ 6300 6200
Wire Wire Line
	6300 6200 6850 6200
Connection ~ 5950 6200
Wire Wire Line
	3200 6200 2850 6200
Connection ~ 3200 6200
Connection ~ 2850 6200
Wire Wire Line
	7200 6150 7200 6200
Wire Wire Line
	7200 5750 7200 3650
Text Label 7250 3650 0    50   ~ 0
itrrandom
$Comp
L Device:R R18
U 1 1 5BDA7207
P 7850 3850
F 0 "R18" H 7920 3896 50  0000 L CNN
F 1 "10k" H 7920 3805 50  0000 L CNN
F 2 "" V 7780 3850 50  0001 C CNN
F 3 "~" H 7850 3850 50  0001 C CNN
	1    7850 3850
	1    0    0    -1  
$EndComp
Wire Wire Line
	7850 3700 7850 3650
Wire Wire Line
	7850 4000 7850 6200
Wire Wire Line
	7200 6200 7850 6200
Connection ~ 7200 6200
Wire Wire Line
	7200 3650 7850 3650
Text Notes 3500 6450 0    150  ~ 30
Current sources
Wire Notes Line
	800  3450 800  500 
Wire Notes Line
	800  500  8200 500 
Wire Notes Line
	8200 500  8200 3450
Wire Notes Line
	8200 3450 800  3450
Wire Notes Line
	800  3550 8200 3550
Wire Notes Line
	8200 3550 8200 6500
Wire Notes Line
	8200 6500 800  6500
Wire Notes Line
	800  3550 800  6500
$Comp
L Simulation_SPICE:ITRRANDOM I9
U 1 1 5C5263E1
P 7200 5950
F 0 "I9" H 7330 6041 50  0000 L CNN
F 1 "ITRRANDOM" H 7330 5950 50  0000 L CNN
F 2 "" H 7200 5950 50  0001 C CNN
F 3 "~" H 7200 5950 50  0001 C CNN
F 4 "Y" H 7200 5950 50  0001 L CNN "Spice_Netlist_Enabled"
F 5 "I" H 7200 5950 50  0001 L CNN "Spice_Primitive"
F 6 "trrandom(2 100n 0 1)" H 7330 5859 50  0000 L CNN "Spice_Model"
	1    7200 5950
	1    0    0    -1  
$EndComp
$Comp
L Simulation_SPICE:ITRNOISE I8
U 1 1 5C526B8F
P 6300 5700
F 0 "I8" H 6430 5791 50  0000 L CNN
F 1 "ITRNOISE" H 6430 5700 50  0000 L CNN
F 2 "" H 6300 5700 50  0001 C CNN
F 3 "~" H 6300 5700 50  0001 C CNN
F 4 "Y" H 6300 5700 50  0001 L CNN "Spice_Netlist_Enabled"
F 5 "I" H 6300 5700 50  0001 L CNN "Spice_Primitive"
F 6 "trnoise(0.1 0.5n 0 0)" H 6430 5609 50  0000 L CNN "Spice_Model"
	1    6300 5700
	1    0    0    -1  
$EndComp
$Comp
L Simulation_SPICE:ISIN I7
U 1 1 5C527479
P 5600 5450
F 0 "I7" H 5730 5541 50  0000 L CNN
F 1 "ISIN" H 5730 5450 50  0000 L CNN
F 2 "" H 5600 5450 50  0001 C CNN
F 3 "~" H 5600 5450 50  0001 C CNN
F 4 "Y" H 5600 5450 50  0001 L CNN "Spice_Netlist_Enabled"
F 5 "I" H 5600 5450 50  0001 L CNN "Spice_Primitive"
F 6 "sin(0 1 100meg 1n 1e10)" H 5730 5359 50  0000 L CNN "Spice_Model"
	1    5600 5450
	1    0    0    -1  
$EndComp
$Comp
L Simulation_SPICE:ISFFM I6
U 1 1 5C527DC7
P 4800 5200
F 0 "I6" H 4930 5291 50  0000 L CNN
F 1 "ISFFM" H 4930 5200 50  0000 L CNN
F 2 "" H 4800 5200 50  0001 C CNN
F 3 "~" H 4800 5200 50  0001 C CNN
F 4 "Y" H 4800 5200 50  0001 L CNN "Spice_Netlist_Enabled"
F 5 "I" H 4800 5200 50  0001 L CNN "Spice_Primitive"
F 6 "sffm(-5 1 100meg 5 10meg)" H 4930 5109 50  0000 L CNN "Spice_Model"
	1    4800 5200
	1    0    0    -1  
$EndComp
$Comp
L Simulation_SPICE:IPWL I5
U 1 1 5C528B91
P 4050 4950
F 0 "I5" H 4180 5041 50  0000 L CNN
F 1 "IPWL" H 4180 4950 50  0000 L CNN
F 2 "" H 4050 4950 50  0001 C CNN
F 3 "~" H 4050 4950 50  0001 C CNN
F 4 "Y" H 4050 4950 50  0001 L CNN "Spice_Netlist_Enabled"
F 5 "I" H 4050 4950 50  0001 L CNN "Spice_Primitive"
F 6 "pwl(0 -7 50n -7 51n -3 97n -4 171n -6.5 200n -6.5)" H 4180 4859 50  0000 L CNN "Spice_Model"
	1    4050 4950
	1    0    0    -1  
$EndComp
$Comp
L Simulation_SPICE:IPULSE I4
U 1 1 5C529462
P 3200 4700
F 0 "I4" H 3330 4791 50  0000 L CNN
F 1 "IPULSE" H 3330 4700 50  0000 L CNN
F 2 "" H 3200 4700 50  0001 C CNN
F 3 "~" H 3200 4700 50  0001 C CNN
F 4 "Y" H 3200 4700 50  0001 L CNN "Spice_Netlist_Enabled"
F 5 "I" H 3200 4700 50  0001 L CNN "Spice_Primitive"
F 6 "pulse(-1 1 2n 30n 2n 50n 100n)" H 3330 4609 50  0000 L CNN "Spice_Model"
	1    3200 4700
	1    0    0    -1  
$EndComp
$Comp
L Simulation_SPICE:IEXP I3
U 1 1 5C52A002
P 2450 4450
F 0 "I3" H 2580 4541 50  0000 L CNN
F 1 "IEXP" H 2580 4450 50  0000 L CNN
F 2 "" H 2450 4450 50  0001 C CNN
F 3 "~" H 2450 4450 50  0001 C CNN
F 4 "Y" H 2450 4450 50  0001 L CNN "Spice_Netlist_Enabled"
F 5 "I" H 2450 4450 50  0001 L CNN "Spice_Primitive"
F 6 "exp(-4 -1 2n 30n 60n 40n)" H 2580 4359 50  0000 L CNN "Spice_Model"
	1    2450 4450
	1    0    0    -1  
$EndComp
$Comp
L Simulation_SPICE:IDC I2
U 1 1 5C52ABAA
P 1750 4200
F 0 "I2" H 1880 4291 50  0000 L CNN
F 1 "IDC" H 1880 4200 50  0000 L CNN
F 2 "" H 1750 4200 50  0001 C CNN
F 3 "~" H 1750 4200 50  0001 C CNN
F 4 "Y" H 1750 4200 50  0001 L CNN "Spice_Netlist_Enabled"
F 5 "I" H 1750 4200 50  0001 L CNN "Spice_Primitive"
F 6 "dc 2.345" H 1880 4109 50  0000 L CNN "Spice_Model"
	1    1750 4200
	1    0    0    -1  
$EndComp
$Comp
L Simulation_SPICE:IAM I1
U 1 1 5C52B633
P 1050 3950
F 0 "I1" H 1180 4041 50  0000 L CNN
F 1 "IAM" H 1180 3950 50  0000 L CNN
F 2 "" H 1050 3950 50  0001 C CNN
F 3 "~" H 1050 3950 50  0001 C CNN
F 4 "Y" H 1050 3950 50  0001 L CNN "Spice_Netlist_Enabled"
F 5 "I" H 1050 3950 50  0001 L CNN "Spice_Primitive"
F 6 "am(0.5 1 10meg 50meg 20n)" H 1180 3859 50  0000 L CNN "Spice_Model"
	1    1050 3950
	1    0    0    -1  
$EndComp
$Comp
L Simulation_SPICE:VTRRANDOM V9
U 1 1 5C52C2F7
P 7150 2900
F 0 "V9" H 7280 2991 50  0000 L CNN
F 1 "VTRRANDOM" H 7280 2900 50  0000 L CNN
F 2 "" H 7150 2900 50  0001 C CNN
F 3 "~" H 7150 2900 50  0001 C CNN
F 4 "Y" H 7150 2900 50  0001 L CNN "Spice_Netlist_Enabled"
F 5 "V" H 7150 2900 50  0001 L CNN "Spice_Primitive"
F 6 "trrandom(2 100n 0 1)" H 7280 2809 50  0000 L CNN "Spice_Model"
	1    7150 2900
	1    0    0    -1  
$EndComp
$Comp
L Simulation_SPICE:VTRNOISE V8
U 1 1 5C52CC31
P 6250 2650
F 0 "V8" H 6380 2741 50  0000 L CNN
F 1 "VTRNOISE" H 6380 2650 50  0000 L CNN
F 2 "" H 6250 2650 50  0001 C CNN
F 3 "~" H 6250 2650 50  0001 C CNN
F 4 "Y" H 6250 2650 50  0001 L CNN "Spice_Netlist_Enabled"
F 5 "V" H 6250 2650 50  0001 L CNN "Spice_Primitive"
F 6 "trnoise(0.1 0.5n 0 0)" H 6380 2559 50  0000 L CNN "Spice_Model"
	1    6250 2650
	1    0    0    -1  
$EndComp
$Comp
L Simulation_SPICE:VSIN V7
U 1 1 5C52D6BF
P 5550 2400
F 0 "V7" H 5680 2491 50  0000 L CNN
F 1 "VSIN" H 5680 2400 50  0000 L CNN
F 2 "" H 5550 2400 50  0001 C CNN
F 3 "~" H 5550 2400 50  0001 C CNN
F 4 "Y" H 5550 2400 50  0001 L CNN "Spice_Netlist_Enabled"
F 5 "V" H 5550 2400 50  0001 L CNN "Spice_Primitive"
F 6 "sin(0 1 100meg 1n 1e10)" H 5680 2309 50  0000 L CNN "Spice_Model"
	1    5550 2400
	1    0    0    -1  
$EndComp
$Comp
L Simulation_SPICE:VSFFM V6
U 1 1 5C52E253
P 4750 2150
F 0 "V6" H 4880 2241 50  0000 L CNN
F 1 "VSFFM" H 4880 2150 50  0000 L CNN
F 2 "" H 4750 2150 50  0001 C CNN
F 3 "~" H 4750 2150 50  0001 C CNN
F 4 "Y" H 4750 2150 50  0001 L CNN "Spice_Netlist_Enabled"
F 5 "V" H 4750 2150 50  0001 L CNN "Spice_Primitive"
F 6 "sffm(-5 1 100meg 5 10meg)" H 4880 2059 50  0000 L CNN "Spice_Model"
	1    4750 2150
	1    0    0    -1  
$EndComp
$Comp
L Simulation_SPICE:VPWL V5
U 1 1 5C52EF6F
P 4000 1900
F 0 "V5" H 4130 1991 50  0000 L CNN
F 1 "VPWL" H 4130 1900 50  0000 L CNN
F 2 "" H 4000 1900 50  0001 C CNN
F 3 "~" H 4000 1900 50  0001 C CNN
F 4 "Y" H 4000 1900 50  0001 L CNN "Spice_Netlist_Enabled"
F 5 "V" H 4000 1900 50  0001 L CNN "Spice_Primitive"
F 6 "pwl(0 -7 50n -7 51n -3 97n -4 171n -6.5 200n -6.5)" H 4130 1809 50  0000 L CNN "Spice_Model"
	1    4000 1900
	1    0    0    -1  
$EndComp
$Comp
L Simulation_SPICE:VPULSE V4
U 1 1 5C52F92F
P 3150 1650
F 0 "V4" H 3280 1741 50  0000 L CNN
F 1 "VPULSE" H 3280 1650 50  0000 L CNN
F 2 "" H 3150 1650 50  0001 C CNN
F 3 "~" H 3150 1650 50  0001 C CNN
F 4 "Y" H 3150 1650 50  0001 L CNN "Spice_Netlist_Enabled"
F 5 "V" H 3150 1650 50  0001 L CNN "Spice_Primitive"
F 6 "pulse(-1 1 2n 30n 2n 50n 100n)" H 3280 1559 50  0000 L CNN "Spice_Model"
	1    3150 1650
	1    0    0    -1  
$EndComp
$Comp
L Simulation_SPICE:VEXP V3
U 1 1 5C53039F
P 2400 1400
F 0 "V3" H 2530 1491 50  0000 L CNN
F 1 "VEXP" H 2530 1400 50  0000 L CNN
F 2 "" H 2400 1400 50  0001 C CNN
F 3 "~" H 2400 1400 50  0001 C CNN
F 4 "Y" H 2400 1400 50  0001 L CNN "Spice_Netlist_Enabled"
F 5 "V" H 2400 1400 50  0001 L CNN "Spice_Primitive"
F 6 "exp(-4 -1 2n 30n 60n 40n)" H 2530 1309 50  0000 L CNN "Spice_Model"
	1    2400 1400
	1    0    0    -1  
$EndComp
$Comp
L Simulation_SPICE:VDC V2
U 1 1 5C530C73
P 1700 1150
F 0 "V2" H 1830 1241 50  0000 L CNN
F 1 "VDC" H 1830 1150 50  0000 L CNN
F 2 "" H 1700 1150 50  0001 C CNN
F 3 "~" H 1700 1150 50  0001 C CNN
F 4 "Y" H 1700 1150 50  0001 L CNN "Spice_Netlist_Enabled"
F 5 "V" H 1700 1150 50  0001 L CNN "Spice_Primitive"
F 6 "dc 2.345" H 1830 1059 50  0000 L CNN "Spice_Model"
	1    1700 1150
	1    0    0    -1  
$EndComp
$Comp
L Simulation_SPICE:VAM V1
U 1 1 5C531459
P 1000 900
F 0 "V1" H 1130 991 50  0000 L CNN
F 1 "VAM" H 1130 900 50  0000 L CNN
F 2 "" H 1000 900 50  0001 C CNN
F 3 "~" H 1000 900 50  0001 C CNN
F 4 "Y" H 1000 900 50  0001 L CNN "Spice_Netlist_Enabled"
F 5 "V" H 1000 900 50  0001 L CNN "Spice_Primitive"
F 6 "am(0.5 1 10meg 50meg 20n)" H 1130 809 50  0000 L CNN "Spice_Model"
	1    1000 900 
	1    0    0    -1  
$EndComp
$Bitmap
Pos 9700 1300
Scale 1.000000
Data
89 50 4E 47 0D 0A 1A 0A 00 00 00 0D 49 48 44 52 00 00 03 32 00 00 01 DC 08 02 00 00 00 82 86 08 
A1 00 00 00 03 73 42 49 54 08 08 08 DB E1 4F E0 00 00 20 00 49 44 41 54 78 9C EC BD 4D 8F DB 58 
9A EF F9 B0 51 AB 0B 0C C6 8B FC 00 D3 55 A4 DD 36 1C 9B 5A 64 8D 18 CB 46 E6 8C 14 31 80 6E A1 
4B 9B 02 9C 8A 0B 0C D5 B9 E9 60 A0 10 09 24 10 46 A1 E0 00 12 53 42 4D 48 BD 98 BC 22 06 6D D9 
40 6C 94 93 B7 02 48 87 84 A9 44 AD 1A 66 DC AC 45 03 83 30 EC B6 C9 AA FE 02 B9 D0 C5 DD F4 C6 
C9 59 F0 45 87 AF A2 F8 7A 28 FD 7F 08 D8 D2 E1 E1 E1 C3 C3 C3 C3 BF 9E F3 1C 1E 61 B9 5C 12 D1 
F5 F5 35 01 00 00 00 00 10 1D 1C 1C 64 D9 ED 5B F5 CE F0 DE BF FC E1 D3 1F 17 6C 4E 59 E5 72 C8 
8F BC 4F 7F FD D7 7F 5D A3 1D 00 00 00 00 E0 81 7F FB B7 7F CB B8 E7 47 07 FD 5F FC E2 EF BF FC 
5F 18 01 C5 28 AA BF 7C F9 F1 4F 3F FF 13 D1 87 5F 7C F1 E0 F3 DF DF FB 97 3F 7C FA E3 6F D5 3B 
C3 7B 5F 3C F8 FC F3 29 11 7D F8 85 A3 BC BE 55 EF FC 62 4A 44 44 FD AF 96 A3 8F 98 03 B8 45 84 
B7 6C 0B 2B 59 26 08 42 8D 76 00 00 00 00 80 7F BE FF FE FB 70 E2 07 1F 7C 40 44 44 1F 8D 96 FF 
F2 E5 C7 3F BD F3 79 58 36 7D AB FE F4 F3 07 5F 2D FF F0 11 FD E5 CB 8F 7F 4A F4 85 93 FE A7 CF 
DF 9E 2E 97 23 FA 56 BD F3 8B 7F FC F6 D3 D1 47 44 1F 8D 96 CB 11 D9 92 EE CB 7F F8 88 D1 78 FF 
E8 14 B1 CE 9E E6 B2 92 65 7F F5 57 7F 55 A3 1D 00 00 00 00 68 04 AE 08 8B E4 C7 9F FE 61 F9 E9 
5F BE FC F8 A7 77 54 56 99 FD C5 7C FD E1 17 FF F9 23 3B C7 69 FF F3 A1 BB E1 C3 2F FE E1 23 22 
A2 8F 0E FA 34 34 FF 42 1F FD 98 75 97 7D F8 05 5B F6 4F EE 7D 38 FD C5 C7 FE E1 CC 44 63 9A C7 
1A 59 F6 EE DD BB 0A 8D 29 8C BB 77 EF D6 6D 02 00 00 00 B0 AB FC F8 D3 FF FC C5 EF 7F 7A FD 6D 
96 71 C6 BF 7C F9 F1 2F E8 AB E5 F2 23 FA CB 97 1F FF 7D A0 58 5B F2 DD B9 F3 A7 ED 1F C4 0C CB 
B2 7F FD D7 7F FD D9 CF 7E F6 93 9F FC A4 5A 93 F2 F2 E7 3F FF F9 BB EF BE FB 9B BF F9 9B BA 0D 
01 00 00 00 76 89 6F BF FC F2 27 9F 7E FA 63 22 FA CB FF FB FB 3F 7D F8 1F 7F 42 F4 67 67 D3 8F 
C5 07 7F 72 06 29 FF F2 E5 70 BA 1A C4 0C F1 E7 B7 7F FA F0 DE 4F 9C 32 E8 3F 86 B6 FF F8 D3 3F 
FC 0B 7D FC F7 8E 63 6D DB 88 95 65 AF 5F BF 6E A2 26 23 22 DB E6 EF BE FB EE C1 83 07 75 DB 02 
00 00 00 EC 0C 1F 89 6F EF DC B9 63 7F EE 7F B5 FC F4 C7 2B 59 46 1F 8D BE EA DF F9 C5 9D 29 D1 
87 5F 7C D1 A7 DF C7 17 F2 0F 5F 0C 7F FA D3 3B 9F D3 87 FD FE 87 FE 4D BE B9 00 5B A8 C9 88 48 
F0 5E 90 F1 F0 E1 43 76 C3 AB 57 AF 1A 2A CB C8 75 98 05 CE 08 00 00 00 00 6B 79 F5 EA 55 C2 0B 
32 BE FF FE FB BC E1 5C 7F F9 F2 E3 9F BE 3D DD CE 41 C8 BC 6C 73 C8 FF F6 9D 11 00 00 00 D0 74 
BE FD C7 CF FF F4 E1 17 8D F4 FA 94 0F 64 19 00 00 00 00 CA 66 F5 CA 31 6F 80 13 84 D9 5C 96 99 
E3 7D 49 D5 BD AF F2 C8 78 79 2C 2E 06 42 47 B3 3F A6 3F F6 62 20 74 34 65 6E 4D DA E9 F7 D9 04 
C8 32 00 00 00 80 0F 7E FC E9 1F 96 9F D6 6D 04 FF 64 F5 96 AD D4 98 2A 0D EE 5A DD 75 F9 83 12 
2C 20 EE D2 F2 9B DF FC 86 88 7E FD EB 5F AF 4D 24 C8 32 00 00 00 00 34 8A 7C 83 98 D2 03 99 28 
8D B8 5A 5C 69 BE AF 03 49 7D 38 1A 91 BA A9 32 FB F5 AF 7F FD 9B DF FC E6 37 BF F9 8D 27 C2 E2 
34 19 41 96 01 00 00 00 A0 51 E4 5B 7C C9 78 AD 13 C9 0F 24 5F E2 62 20 74 1C 11 C6 8C 70 12 11 
69 1D C1 F6 98 B5 27 96 45 E6 78 5F CD 60 31 AB CC 12 34 19 61 39 29 00 00 00 00 34 8A AC DE 32 
5D 95 04 95 88 48 99 BF 3C 16 69 E1 A6 DB 12 4C 99 5B 93 B6 39 DE 97 54 69 70 D7 9A 4C AC 39 79 
C9 05 18 ED 29 33 8A D7 64 04 6F 19 00 00 00 00 1A C5 1A 59 F6 FE FD FB 50 D2 0F 16 11 B5 FE CF 
7F FD E7 7F 10 BD 3C EF 2D 22 B2 7E 78 FF E2 F7 1A 11 FD EF FF DB C7 EF DF BF FF EB FF F5 EF 5A 
A4 6B BF 7F F1 7F 7D DC 7E 6F 11 11 59 EF D9 F2 EC 82 FC 69 9B 93 B0 37 64 19 00 00 00 00 1A C4 
E6 B2 EC 07 5B 4D FD F0 03 BB CD 4D FB C1 96 5F F6 36 37 E7 FB F7 EF 7D E9 81 82 36 97 65 5F 7C 
F1 05 11 7D FE F9 E7 5F 7C F1 C5 F9 F9 F9 E7 9F 7F 1E 99 0D B2 0C 00 00 00 00 0D 22 8B B7 8C 88 
88 7E F0 79 B9 AC 1F EC B4 8F 0E FF 13 FD DF FF F4 EA ED BB F7 1F FD E4 CF 2F FE 9F FF 4A F4 9F 
0E 3F 7A FF FE FD 8F EF FE CF 44 FF F5 07 CB EF 2D 23 22 F2 A7 A5 E0 B7 BF FD 2D 11 7D F6 D9 67 
EF DF BF FF EC B3 CF 7E FB DB DF 7E F1 C5 17 9F 7D F6 59 38 27 64 19 00 00 00 00 1A 44 06 6F 99 
F5 83 FD 6F C8 5B F6 83 F5 C3 FB BF 1D FF F7 FF 62 FD 0F 3F DF FB 0F 9F 11 11 7D F8 7F FC 7F E3 
BF 7D FF FE 3D FD 4F 9F 7E 76 F4 D9 CF FF A9 FB 1F FE E9 E8 BF FC F7 7F FC 88 29 68 33 6F D9 EF 
7E F7 3B 22 FA D5 AF 7E E5 ED F4 AB 5F FD EA 77 BF FB DD 6F 7F FB DB 5F FD EA 57 81 CC 90 65 00 
00 00 00 68 10 AB 35 31 FF F6 6F FF 96 DD F0 C7 3F FE F1 67 3F FB 59 DE 75 AF 6A E2 FB EF BF FF 
EE BB EF 02 67 04 00 00 00 80 B5 FC F1 8F 7F 2C 77 4D 4C 10 CF E6 DE B2 E6 00 6F 19 00 00 00 50 
25 DF FE F1 9F EB 36 A1 D9 40 96 01 00 00 00 A0 30 FE EE E7 87 75 9B D0 60 20 CB 00 00 00 00 00 
B8 00 B2 0C 00 00 00 00 80 0B 56 B2 EC FA FA 3A BC F9 DF FF FD DF 2B 34 A6 60 22 CF 08 00 00 00 
00 80 4F 56 B2 EC 67 3F FB 59 8D 76 14 CE 96 9D 0E 00 00 00 50 0D DF 7D F7 5D DD 26 EC 2E 18 E6 
03 00 00 00 00 E0 82 95 B7 0C EA 18 00 00 00 00 A0 46 56 B2 EC 97 BF FC 65 8D 76 00 00 00 00 80 
07 2E 2F 2F EB 36 61 77 C1 20 26 00 00 00 00 CA 67 31 10 1C 06 0B 22 32 C7 FB C2 FE D8 CC 5F 68 
FE 42 38 02 B2 0C 00 00 00 00 25 63 8E F7 3B 34 B7 2C CB B2 2C E3 C1 BB 05 91 78 FC D2 7A 79 2C 
D6 6D 18 67 FC 68 7D 16 00 00 00 00 80 3C 18 AF 75 F9 81 64 7F 16 8F A1 C6 E2 80 B7 0C 00 00 00 
00 25 D3 EE 2A BA FA 89 6F B8 91 19 7F 34 C7 FB 82 20 08 C2 FE 78 EC 26 2E 06 F6 37 27 DD F4 F6 
61 07 42 B7 0F C8 32 00 00 00 00 94 4D 7B 62 19 BD 99 14 25 A8 16 03 49 7D 38 B7 2C CB 7A 46 33 
6D 95 AE AB AF BB 96 65 59 73 45 57 87 0B B7 14 CB 4E D2 CE B7 29 A4 CC 03 B2 0C 00 00 00 00 15 
20 1E BF B4 2C 63 F4 AA E3 57 66 E6 BB 57 F2 E8 B4 6D E7 38 53 56 1B DC D4 76 57 A1 57 EF 6C 11 
E6 B8 CB 3A 8C 7A DB 2A 20 CB 00 00 00 00 50 15 E2 F1 B3 91 AC 5D 65 1A 82 5C CD 1B 30 46 72 D1 
86 F1 01 64 19 00 00 00 00 4A 66 31 76 C7 1C CD EB D9 2A FA 9F 88 48 BC FB D0 1D A4 34 C7 E7 49 
6E 30 6F DE 80 79 3D D3 CB B3 B5 4E 20 CB 00 00 00 00 50 32 ED BB AF 25 3B 56 5F 52 1F CE FD 2F 
C6 68 4F E6 8A D6 11 04 41 F8 84 7A 4A 6C 11 44 ED D3 11 A9 92 20 08 9F BC 7E B8 A5 DE 32 61 B9 
5C 12 D1 F5 F5 35 DE F2 0F 00 00 00 80 CB CB CB 83 83 83 B8 AD DF 7F FF FD 07 1F 7C 10 B7 F5 DB 
3F FE F3 DF FD FC 30 FB B1 CD F1 BE F4 FA CC 9A B4 B3 17 D1 6C E0 2D 03 00 00 00 00 17 2C 86 AA 
7F 80 73 E7 C0 EB 64 01 00 00 00 50 23 E6 78 5F 52 9D 58 31 65 6E ED F4 BB 66 21 CB 00 00 00 00 
50 23 E2 F1 4B EB B8 6E 23 38 01 83 98 00 00 00 00 00 5C 00 59 06 00 00 00 00 C0 05 90 65 00 00 
00 00 00 5C 00 59 06 00 00 00 00 C0 05 90 65 00 00 00 00 00 5C 00 59 06 00 00 00 00 C0 05 90 65 
00 00 00 00 00 5C 00 59 06 00 00 00 00 C0 05 90 65 00 00 00 00 00 5C 00 59 06 00 00 00 00 BE 58 
0C 04 79 64 FA BE 0F 16 F6 47 73 24 7B 9F 03 9B 0A 3E 68 1D 40 96 01 00 00 00 A0 34 04 61 B3 3F 
22 22 6A 77 95 9B 37 86 57 C6 E2 4A 53 BA 6D 22 22 73 F4 68 D6 33 26 6D 77 8B 39 7A 72 7B 71 DA 
A6 22 68 4F 8C DE EC 51 BD C2 0C B2 0C 00 00 00 00 9C 21 DD 6F 69 57 AE 13 8C 51 65 2F 66 D4 3B 
5C AD 65 6E BE 98 ED 3D 56 0B 5B DB 5C 54 1F EF 9D 0C 8B F1 BD 65 03 B2 0C 00 00 00 00 9C 21 1E 
F6 3C 5D 96 AC CA BA ED E0 C0 A6 3B 18 B9 18 08 0E CE B6 C5 40 90 47 8B 91 EC A6 99 CE 47 66 EC 
52 BA DF BA 7D 5B A3 BF 0C B2 0C 00 00 00 00 BC 21 1E F6 1C 81 B4 52 65 64 BC B9 D9 BB B7 52 65 
8B E1 C9 5E B7 4D 44 A2 FA 58 F1 9C 6B 8B 2B 4D 79 AC 8A 44 ED 89 65 59 96 65 CD 15 ED 89 AB BB 
6E 4E 9E D0 73 3B AD 23 3C A2 E7 F6 F6 1B CF 45 26 DE DB 63 47 4F 2B 07 B2 0C 00 00 00 00 DC 21 
1E F6 68 F6 C2 24 F3 ED 6D EB BE 14 95 63 71 B5 0A 2B 6B 77 5D 5D C6 A4 3A EE B2 8E B6 DA A7 75 
F1 5C 15 ED FC D4 72 1C 6F ED AE 42 9E 8B AC 66 77 19 64 19 00 00 00 00 F8 C3 D6 65 8B C0 B8 A5 
87 39 7A 72 CB 6C 68 9F 5E DC 3E 19 99 AB 54 73 24 77 68 6E 59 96 65 5C B4 D2 1F 35 E0 90 AB 1A 
C8 32 00 00 00 00 70 88 78 D8 A3 93 CE 09 A3 CA 18 57 56 28 D8 5F 3C EC D1 6C 38 F4 52 8D 37 37 
B6 97 CD 7C 31 BB 49 7D CC 78 DF 5C 35 40 96 01 00 00 00 80 47 C4 C3 5E CB 1B 6A 74 12 68 F6 C2 
A4 55 B0 BF 3F 37 69 9A 97 DA 3E BD A0 13 49 10 84 47 6F F6 D2 7B CB 6A 76 96 91 B0 5C 2E 89 E8 
FA FA FA 97 BF FC 65 7D 66 00 00 00 00 80 0B 2E 2F 2F 0F 0E 0E E2 B6 7E FF FD F7 1F 7C F0 41 DC 
D6 6F FF F8 CF 7F F7 F3 C3 72 EC 22 22 22 73 24 3F A2 E7 FA BD A1 FC F6 54 2F EE CD 18 FE D2 0B 
2F 37 3D 3F AA ED C8 00 00 00 00 00 1B 21 AA CF 7B B2 34 78 6C E9 6A E1 65 2F 06 D2 C9 DE DC AA 
D1 57 06 59 06 00 00 00 80 06 21 AA BA 55 4E C9 ED 89 55 52 C9 E9 41 6C 19 11 C9 23 C3 32 46 F2 
9A 24 6F 83 31 92 49 99 47 6E 05 00 00 50 2E F2 C8 B0 DC B7 51 95 51 3E BA 77 50 27 90 65 44 A4 
AB C3 85 78 D0 63 EE 43 B9 77 20 2E 86 AA 1E B7 87 FC A0 C6 69 1A 00 00 B0 AB C8 23 E3 E5 C1 F5 
BE FD 92 76 9A 94 20 A0 D0 BD 83 5A 81 2C 23 22 22 ED 7C 4C 8C 2E 93 7B 07 34 3E D7 88 98 DF 65 
CC DD 7F F7 EC D9 B1 28 1E BF 34 46 72 E4 0F 37 65 6E 7F 1F 8D 0C 27 CD 49 29 EB C7 1D 00 00 EC 
04 72 EF 80 C6 9F 38 3F 99 B5 F3 FD E1 8C BC 41 0C E6 93 3C 32 8C F9 DC B0 2C 6B AE B0 9F 29 D4 
1B CB 23 63 3E 9F AF 52 E4 11 D3 BD 03 50 3D 90 65 36 FA EC 9A 8E CF 1C CD A4 9C 1D D3 F5 4C 27 
FB 0E 35 06 82 20 08 03 E3 F8 99 7B 9B BE 3B FF 64 6C 9A E3 7D 49 D5 E5 D1 33 E7 87 DB 60 D1 EE 
2A 44 44 CA 7C 22 8D F7 05 41 B8 BA 7B 2C 12 11 C9 23 E3 F4 9D F7 E3 0E C2 0C 00 00 32 F2 F0 AE 
68 BC F6 C6 31 74 5D D3 E3 06 35 44 E9 DD 27 EE EB DD BD CF 91 BD 71 9B AE 56 7D B8 AE 7A DD 7B 
05 A7 03 40 08 C8 32 07 5D 1D 7A BA AA DB 76 07 30 1F DE 15 17 57 1A 11 91 76 B5 10 EF 3E 8C D8 
4D FA 84 9E 59 96 65 4D DA 24 3D 90 89 E4 07 92 69 6B 3A 77 79 AE 87 77 45 F1 F8 A5 C5 66 02 00 
00 50 26 4E 3F EC FF 1C D9 1B 9B EF 5E 11 11 BD 7A 67 A2 7B 06 F5 03 59 E6 A1 5D 2D DA 5D 85 E4 
D1 69 DB 91 62 29 50 E6 D6 CB BB 43 66 79 FA 68 56 AB D8 0B F8 0D 06 00 00 19 59 A3 9D 1E DE 5D 
FB 6A 03 F4 C6 80 6F 20 CB 56 68 E7 63 E9 74 7E E6 85 95 11 D1 AB 77 E6 CA 85 E6 FC A4 0A 62 6B 
38 77 75 7B D2 5F 1B CE F4 01 37 E9 D5 3B B3 7D 3A 92 C9 8E 43 C3 20 26 00 00 64 44 9F 5D 93 17 
50 A2 CC BD A8 5F 7B 30 63 6D B4 3E 7A 63 C0 3D 90 65 0C FA EC 9A DA 6D 62 5C DF BA FA C9 58 9A 
58 96 65 4D 68 C0 FC B2 D2 5F 1B 76 4C A8 76 B5 68 4F 2C CB B2 BA B4 70 3A 06 AD 33 30 8E 5F 3A 
49 76 21 92 93 F2 F2 D8 18 74 D2 3A E2 00 00 00 04 58 F5 A7 96 35 91 EC 18 30 5D 1D DA 1D F1 B3 
BB 86 99 72 EF F8 DE D8 EB DE 4B B1 1F A4 65 31 10 E4 91 E9 FB EE 0E 4A 99 23 D9 37 40 C5 6C 4A 
5F DE FA 0D 75 B1 5C 2E 97 CB E5 E5 E5 65 DD 86 6C 1F AB D9 41 00 00 00 40 53 B8 BC BC 5C C6 63 
9A 66 C2 D6 AF BE FE C6 F2 43 16 6D F4 B7 9A 2A EB 4D 9B 65 BF 19 17 AD D6 85 B1 2A 3E F8 3D 86 
B9 42 71 D9 52 96 50 11 F0 96 15 8E D7 8E 5E 1E 5C 7F 82 D0 05 00 00 00 60 63 A4 FB 2D 77 E2 1C 
D1 E2 4A 73 E2 82 CC 17 33 62 96 2E 27 F3 C5 6C EF 71 BE 25 2C 45 F5 F1 DE C9 70 AD BF AD 22 20 
CB 0A 47 EB 20 9E 14 00 00 00 C8 83 78 D8 F3 74 59 B2 2A EB B6 83 03 9B DE C0 A4 39 92 05 41 10 
04 79 F4 96 29 DA 4D F5 26 EB 49 F7 5B B7 6F 39 19 C8 84 2C 03 00 00 00 00 6F 88 87 3D 47 2C AD 