* Copyright © 1999, 2000, 2001, 2002, 2003, 2004, 2005, 2006, 2007, 2008 Linear Technology Corporation.   All rights reserved.
*
* Mike Engelhardt
*
.model 1N914 D(Is=2.52n Rs=.568 N=1.752 Cjo=4p M=.4 tt=20n Iave=200m Vpk=75)
.model 1N4148 D(Is=2.52n Rs=.568 N=1.752 Cjo=4p M=.4 tt=20n Iave=200m Vpk=75)