*****
* DIODE.LIB
* spectrum
* andy
* Generated by the Micro-Cap Model program Version 11.0.1.7.
*****

*** Low Leakage Diode
.MODEL 1N456 D (BV=30 CJO=4.505p IBV=100p IS=29.054p M=385.099m N=1.425 
+ RL=125.018MEG RS=910.713m TT=5u VJ=700m)

*** Low Leakage Diode
.MODEL 1N456A D (BV=30 CJO=4.505E-12 IBV=100E-12 IS=29.054E-12 M=385.099E-3 N=1.425
+ RS=910.713E-3 TT=5E-6 VJ=700E-3)

*** Low Leakage Diode
.MODEL 1N457 D (BV=70 CJO=4.505p IBV=100p IS=19.191p M=385.099m N=1.388
+ RL=125.012MEG RS=980.164m TT=5u VJ=700m)

*** Low Leakage Diode
.MODEL 1N457A D (BV=70 CJO=4.505p IBV=100p IS=19.191p M=385.099m N=1.388
+ RL=125.018MEG RS=980.164m TT=5u VJ=700m)
