*
* Resistors
.model PT100 R(R=100 Tnom=0 tc1=3.85m noisy=0)
.model VISHAY_CRCW060310M0FKTABC R(R=10Meg Tnom=20 tc1=100u) ; bv_max=75 - idk if we should include that

* Capacitors
.model AVX_12066D107MAT4A C(C=100u Tnom=15 tc1=21.4u)

* Inductors
.model AVX_0603WL221GT L(ind=220n Tnom=20 tc1=125u)

